# MODFLOW-USGs GHB Package
198 54
198 0         01/01/1989 00:00
86546 +1.12262962E+02 +2.00000000E+05
86727 +1.11547554E+02 +2.00000000E+05
86908 +1.11209808E+02 +2.00000000E+05
87089 +1.10625671E+02 +2.00000000E+05
87270 +1.10062408E+02 +2.00000000E+05
87451 +1.09183105E+02 +2.00000000E+05
87631 +1.05708176E+02 +2.00000000E+05
87811 +1.03166214E+02 +2.00000000E+05
87991 +1.01220222E+02 +2.00000000E+05
88171 +9.98642654E+01 +2.00000000E+05
88351 +9.87465286E+01 +2.00000000E+05
88531 +9.75256042E+01 +2.00000000E+05
88711 +9.63755264E+01 +2.00000000E+05
88891 +9.50367203E+01 +2.00000000E+05
89070 +9.20489655E+01 +2.00000000E+05
89249 +9.06041260E+01 +2.00000000E+05
89428 +8.95027695E+01 +2.00000000E+05
89608 +8.81662140E+01 +2.00000000E+05
89788 +8.68903122E+01 +2.00000000E+05
89968 +8.56077042E+01 +2.00000000E+05
90148 +8.41887436E+01 +2.00000000E+05
90327 +7.97332764E+01 +2.00000000E+05
90506 +7.83792648E+01 +2.00000000E+05
90685 +7.70659790E+01 +2.00000000E+05
90864 +7.57472534E+01 +2.00000000E+05
91043 +7.45246964E+01 +2.00000000E+05
91222 +7.33961334E+01 +2.00000000E+05
91401 +7.22938004E+01 +2.00000000E+05
91579 +6.89473648E+01 +2.00000000E+05
91757 +6.82252655E+01 +2.00000000E+05
91935 +6.74635620E+01 +2.00000000E+05
92113 +6.69933701E+01 +2.00000000E+05
92291 +6.63178635E+01 +2.00000000E+05
92469 +6.57946014E+01 +2.00000000E+05
92647 +6.54365387E+01 +2.00000000E+05
92824 +6.37393684E+01 +2.00000000E+05
93001 +6.33423882E+01 +2.00000000E+05
93178 +6.29499969E+01 +2.00000000E+05
93355 +6.27295570E+01 +2.00000000E+05
93532 +6.24171486E+01 +2.00000000E+05
93709 +6.22216110E+01 +2.00000000E+05
93886 +6.19810944E+01 +2.00000000E+05
94063 +6.17944717E+01 +2.00000000E+05
94239 +6.08737564E+01 +2.00000000E+05
94415 +6.07211380E+01 +2.00000000E+05
94591 +6.04176292E+01 +2.00000000E+05
94767 +6.01908226E+01 +2.00000000E+05
94943 +6.00617447E+01 +2.00000000E+05
95118 +5.91823311E+01 +2.00000000E+05
95293 +5.90607567E+01 +2.00000000E+05
95468 +5.88667564E+01 +2.00000000E+05
95643 +5.85199394E+01 +2.00000000E+05
95817 +5.73218613E+01 +4.00000000E+05
95991 +5.69334564E+01 +4.00000000E+05
96164 +5.57923813E+01 +4.00000000E+05
96336 +5.46273575E+01 +4.00000000E+05
96508 +5.44456787E+01 +4.00000000E+05
96679 +5.32665596E+01 +4.00000000E+05
96850 +5.33880424E+01 +4.00000000E+05
97020 +5.17365608E+01 +4.00000000E+05
97190 +5.16026955E+01 +4.00000000E+05
97359 +4.77180176E+01 +4.00000000E+05
97527 +4.17258415E+01 +4.00000000E+05
97691 +3.80140114E+01 +2.00000000E+05
97692 +3.88999481E+01 +2.00000000E+05
97693 +4.03985214E+01 +2.00000000E+05
97694 +4.31532326E+01 +2.00000000E+05
97852 +3.44029617E+01 +2.00000000E+05
97853 +3.48787308E+01 +2.00000000E+05
97854 +3.53628616E+01 +2.00000000E+05
97855 +3.59073181E+01 +2.00000000E+05
97856 +3.65044861E+01 +2.00000000E+05
97857 +3.70362778E+01 +2.00000000E+05
98002 +2.82629776E+01 +2.00000000E+05
98003 +2.87515831E+01 +2.00000000E+05
98004 +2.92559280E+01 +2.00000000E+05
98005 +2.97879276E+01 +2.00000000E+05
98006 +3.02719154E+01 +2.00000000E+05
98007 +3.06642437E+01 +2.00000000E+05
98008 +3.10761776E+01 +2.00000000E+05
98009 +3.16604919E+01 +2.00000000E+05
98010 +3.20300064E+01 +2.00000000E+05
98011 +3.24270210E+01 +2.00000000E+05
98012 +3.30005302E+01 +2.00000000E+05
98013 +3.33575668E+01 +2.00000000E+05
98014 +3.38057404E+01 +2.00000000E+05
98158 +2.77784691E+01 +3.00000000E+05
98192 +1.28137627E+01 +3.00000000E+05
98193 +1.30811481E+01 +3.00000000E+05
98194 +1.31497517E+01 +3.00000000E+05
98195 +1.30905428E+01 +3.00000000E+05
98196 +1.30535917E+01 +3.00000000E+05
98197 +1.30539532E+01 +3.00000000E+05
98198 +1.30343189E+01 +3.00000000E+05
98199 +1.30316525E+01 +3.00000000E+05
98200 +1.29333601E+01 +3.00000000E+05
98201 +1.29777908E+01 +3.00000000E+05
98202 +1.28809853E+01 +3.00000000E+05
98203 +1.27754974E+01 +3.00000000E+05
98204 +1.26055555E+01 +3.00000000E+05
98205 +1.24533854E+01 +3.00000000E+05
98206 +1.23295240E+01 +3.00000000E+05
98207 +1.21329279E+01 +3.00000000E+05
98208 +1.19792442E+01 +3.00000000E+05
98209 +1.18258810E+01 +3.00000000E+05
98210 +1.17207260E+01 +3.00000000E+05
98211 +1.15764446E+01 +3.00000000E+05
98212 +1.14654875E+01 +3.00000000E+05
98213 +1.12454376E+01 +3.00000000E+05
98214 +1.11724854E+01 +3.00000000E+05
98215 +1.10663271E+01 +3.00000000E+05
98216 +1.07398510E+01 +3.00000000E+05
98217 +1.05908508E+01 +3.00000000E+05
98218 +1.04613161E+01 +3.00000000E+05
98219 +1.03087845E+01 +3.00000000E+05
98220 +1.00976238E+01 +3.00000000E+05
98221 +9.93921566E+00 +3.00000000E+05
98222 +9.70456886E+00 +3.00000000E+05
98223 +9.50276566E+00 +3.00000000E+05
98224 +9.32140064E+00 +3.00000000E+05
98225 +9.21235752E+00 +3.00000000E+05
98226 +9.03576088E+00 +3.00000000E+05
98227 +8.88282394E+00 +3.00000000E+05
98228 +8.66159821E+00 +3.00000000E+05
98229 +8.57707500E+00 +3.00000000E+05
98230 +8.43227005E+00 +3.00000000E+05
98231 +8.32611275E+00 +3.00000000E+05
98232 +8.18469715E+00 +3.00000000E+05
98233 +8.04106045E+00 +3.00000000E+05
98234 +7.84667063E+00 +3.00000000E+05
98235 +7.81797552E+00 +3.00000000E+05
98236 +7.72494602E+00 +3.00000000E+05
98237 +7.66674471E+00 +3.00000000E+05
98238 +7.46053123E+00 +3.00000000E+05
98239 +7.39206791E+00 +3.00000000E+05
98240 +7.32347822E+00 +3.00000000E+05
98241 +7.19557047E+00 +3.00000000E+05
98242 +7.15734720E+00 +3.00000000E+05
98243 +7.09430265E+00 +3.00000000E+05
98244 +6.99619913E+00 +3.00000000E+05
98245 +6.88780308E+00 +3.00000000E+05
98246 +6.88568497E+00 +3.00000000E+05
98247 +6.78689575E+00 +3.00000000E+05
98248 +6.83464909E+00 +3.00000000E+05
98249 +6.76342249E+00 +3.00000000E+05
98250 +6.69755125E+00 +3.00000000E+05
98251 +6.63302946E+00 +3.00000000E+05
98252 +6.59748459E+00 +3.00000000E+05
98253 +6.53616858E+00 +3.00000000E+05
98254 +6.61817551E+00 +3.00000000E+05
98255 +6.71337509E+00 +3.00000000E+05
98256 +6.75031185E+00 +3.00000000E+05
98257 +6.70825720E+00 +3.00000000E+05
98258 +6.72006178E+00 +3.00000000E+05
98259 +6.73557901E+00 +3.00000000E+05
98260 +6.85865307E+00 +3.00000000E+05
98261 +6.85673761E+00 +3.00000000E+05
98262 +6.87333393E+00 +3.00000000E+05
98263 +6.92908239E+00 +3.00000000E+05
98264 +6.95840359E+00 +3.00000000E+05
98265 +6.98114824E+00 +3.00000000E+05
98266 +7.11463070E+00 +3.00000000E+05
98267 +7.18209171E+00 +3.00000000E+05
98268 +7.24429798E+00 +3.00000000E+05
98269 +7.28708744E+00 +3.00000000E+05
98270 +7.33661079E+00 +3.00000000E+05
98271 +7.51378679E+00 +3.00000000E+05
98272 +7.59273720E+00 +3.00000000E+05
98273 +7.64583063E+00 +3.00000000E+05
98274 +7.77586985E+00 +3.00000000E+05
98275 +7.97755432E+00 +3.00000000E+05
98276 +8.22753525E+00 +3.00000000E+05
98277 +8.47017670E+00 +3.00000000E+05
98278 +8.77417755E+00 +3.00000000E+05
98279 +9.43617535E+00 +3.00000000E+05
98280 +1.03032827E+01 +3.00000000E+05
98281 +1.13299761E+01 +3.00000000E+05
98282 +1.24300222E+01 +3.00000000E+05
98283 +1.33457088E+01 +3.00000000E+05
98284 +1.40872288E+01 +3.00000000E+05
98285 +1.46875057E+01 +3.00000000E+05
98286 +1.53975420E+01 +3.00000000E+05
98287 +1.59884949E+01 +3.00000000E+05
98288 +1.65972633E+01 +3.00000000E+05
98289 +1.72601089E+01 +3.00000000E+05
98290 +1.81190624E+01 +3.00000000E+05
98291 +1.88922310E+01 +3.00000000E+05
98292 +1.96436195E+01 +3.00000000E+05
98293 +2.05640774E+01 +3.00000000E+05
98294 +2.15448170E+01 +3.00000000E+05
98295 +2.23532181E+01 +3.00000000E+05
98296 +2.32859898E+01 +3.00000000E+05
98297 +2.41459732E+01 +3.00000000E+05
98298 +2.49912033E+01 +3.00000000E+05
98299 +2.57899284E+01 +3.00000000E+05
98300 +2.66104736E+01 +3.00000000E+05
98301 +2.72161541E+01 +3.00000000E+05
98302 +2.76789646E+01 +3.00000000E+05
198 0         01/02/1989 00:00
86546 +1.12364304E+02 +2.00000000E+05
86727 +1.11640106E+02 +2.00000000E+05
86908 +1.11297859E+02 +2.00000000E+05
87089 +1.10708504E+02 +2.00000000E+05
87270 +1.10139923E+02 +2.00000000E+05
87451 +1.09254433E+02 +2.00000000E+05
87631 +1.05785652E+02 +2.00000000E+05
87811 +1.03250626E+02 +2.00000000E+05
87991 +1.01308945E+02 +2.00000000E+05
88171 +9.99519577E+01 +2.00000000E+05
88351 +9.88331985E+01 +2.00000000E+05
88531 +9.76159439E+01 +2.00000000E+05
88711 +9.64649429E+01 +2.00000000E+05
88891 +9.51261749E+01 +2.00000000E+05
89070 +9.21398087E+01 +2.00000000E+05
89249 +9.06972733E+01 +2.00000000E+05
89428 +8.95962753E+01 +2.00000000E+05
89608 +8.82617188E+01 +2.00000000E+05
89788 +8.69843292E+01 +2.00000000E+05
89968 +8.57047882E+01 +2.00000000E+05
90148 +8.42871704E+01 +2.00000000E+05
90327 +7.98530807E+01 +2.00000000E+05
90506 +7.85031586E+01 +2.00000000E+05
90685 +7.71895599E+01 +2.00000000E+05
90864 +7.58706284E+01 +2.00000000E+05
91043 +7.46523972E+01 +2.00000000E+05
91222 +7.35240631E+01 +2.00000000E+05
91401 +7.24222488E+01 +2.00000000E+05
91579 +6.90819168E+01 +2.00000000E+05
91757 +6.83583450E+01 +2.00000000E+05
91935 +6.75955887E+01 +2.00000000E+05
92113 +6.71248474E+01 +2.00000000E+05
92291 +6.64519043E+01 +2.00000000E+05
92469 +6.59280701E+01 +2.00000000E+05
92647 +6.55696793E+01 +2.00000000E+05
92824 +6.38739891E+01 +2.00000000E+05
93001 +6.34799194E+01 +2.00000000E+05
93178 +6.30873451E+01 +2.00000000E+05
93355 +6.28666611E+01 +2.00000000E+05
93532 +6.25550003E+01 +2.00000000E+05
93709 +6.23615990E+01 +2.00000000E+05
93886 +6.21209030E+01 +2.00000000E+05
94063 +6.19344559E+01 +2.00000000E+05
94239 +6.10155754E+01 +2.00000000E+05
94415 +6.08636093E+01 +2.00000000E+05
94591 +6.05624237E+01 +2.00000000E+05
94767 +6.03356857E+01 +2.00000000E+05
94943 +6.02067375E+01 +2.00000000E+05
95118 +5.93296204E+01 +2.00000000E+05
95293 +5.92082329E+01 +2.00000000E+05
95468 +5.90144920E+01 +2.00000000E+05
95643 +5.86712799E+01 +2.00000000E+05
95817 +5.74783363E+01 +4.00000000E+05
95991 +5.70933876E+01 +4.00000000E+05
96164 +5.59560165E+01 +4.00000000E+05
96336 +5.47931976E+01 +4.00000000E+05
96508 +5.46138077E+01 +4.00000000E+05
96679 +5.34335785E+01 +4.00000000E+05
96850 +5.35494652E+01 +4.00000000E+05
97020 +5.18893471E+01 +4.00000000E+05
97190 +5.17525597E+01 +4.00000000E+05
97359 +4.78664856E+01 +4.00000000E+05
97527 +4.18942375E+01 +4.00000000E+05
97691 +3.78436165E+01 +2.00000000E+05
97692 +3.87309723E+01 +2.00000000E+05
97693 +4.02320900E+01 +2.00000000E+05
97694 +4.29895973E+01 +2.00000000E+05
97852 +3.42298241E+01 +2.00000000E+05
97853 +3.47057533E+01 +2.00000000E+05
97854 +3.51908188E+01 +2.00000000E+05
97855 +3.57346306E+01 +2.00000000E+05
97856 +3.63325958E+01 +2.00000000E+05
97857 +3.68643875E+01 +2.00000000E+05
98002 +2.80960598E+01 +2.00000000E+05
98003 +2.85853500E+01 +2.00000000E+05
98004 +2.90879593E+01 +2.00000000E+05
98005 +2.96178074E+01 +2.00000000E+05
98006 +3.01022453E+01 +2.00000000E+05
98007 +3.04933319E+01 +2.00000000E+05
98008 +3.09041634E+01 +2.00000000E+05
98009 +3.14878273E+01 +2.00000000E+05
98010 +3.18567905E+01 +2.00000000E+05
98011 +3.22540741E+01 +2.00000000E+05
98012 +3.28268547E+01 +2.00000000E+05
98013 +3.31838074E+01 +2.00000000E+05
98014 +3.36323433E+01 +2.00000000E+05
98158 +2.76145554E+01 +3.00000000E+05
98192 +1.27613535E+01 +3.00000000E+05
98193 +1.30281610E+01 +3.00000000E+05
98194 +1.30962915E+01 +3.00000000E+05
98195 +1.30366554E+01 +3.00000000E+05
98196 +1.29991989E+01 +3.00000000E+05
98197 +1.29991388E+01 +3.00000000E+05
98198 +1.29791689E+01 +3.00000000E+05
98199 +1.29760942E+01 +3.00000000E+05
98200 +1.28774385E+01 +3.00000000E+05
98201 +1.29212914E+01 +3.00000000E+05
98202 +1.28237085E+01 +3.00000000E+05
98203 +1.27176800E+01 +3.00000000E+05
98204 +1.25473366E+01 +3.00000000E+05
98205 +1.23947659E+01 +3.00000000E+05
98206 +1.22705698E+01 +3.00000000E+05
98207 +1.20720215E+01 +3.00000000E+05
98208 +1.19185400E+01 +3.00000000E+05
98209 +1.17620735E+01 +3.00000000E+05
98210 +1.16567001E+01 +3.00000000E+05
98211 +1.15122004E+01 +3.00000000E+05
98212 +1.13981409E+01 +3.00000000E+05
98213 +1.11778727E+01 +3.00000000E+05
98214 +1.11017418E+01 +3.00000000E+05
98215 +1.09924746E+01 +3.00000000E+05
98216 +1.06657639E+01 +3.00000000E+05
98217 +1.05135584E+01 +3.00000000E+05
98218 +1.03838520E+01 +3.00000000E+05
98219 +1.02280912E+01 +3.00000000E+05
98220 +1.00136919E+01 +3.00000000E+05
98221 +9.85508919E+00 +3.00000000E+05
98222 +9.61718273E+00 +3.00000000E+05
98223 +9.41211224E+00 +3.00000000E+05
98224 +9.23053455E+00 +3.00000000E+05
98225 +9.11821175E+00 +3.00000000E+05
98226 +8.94128799E+00 +3.00000000E+05
98227 +8.78517437E+00 +3.00000000E+05
98228 +8.56362152E+00 +3.00000000E+05
98229 +8.47581387E+00 +3.00000000E+05
98230 +8.33067513E+00 +3.00000000E+05
98231 +8.22121620E+00 +3.00000000E+05
98232 +8.07956982E+00 +3.00000000E+05
98233 +7.93262243E+00 +3.00000000E+05
98234 +7.73787117E+00 +3.00000000E+05
98235 +7.70596886E+00 +3.00000000E+05
98236 +7.61253977E+00 +3.00000000E+05
98237 +7.55098057E+00 +3.00000000E+05
98238 +7.34450197E+00 +3.00000000E+05
98239 +7.27269125E+00 +3.00000000E+05
98240 +7.20371819E+00 +3.00000000E+05
98241 +7.07259846E+00 +3.00000000E+05
98242 +7.03310823E+00 +3.00000000E+05
98243 +6.97006416E+00 +3.00000000E+05
98244 +6.86900234E+00 +3.00000000E+05
98245 +6.76053381E+00 +3.00000000E+05
98246 +6.75510216E+00 +3.00000000E+05
98247 +6.65607691E+00 +3.00000000E+05
98248 +6.70153618E+00 +3.00000000E+05
98249 +6.63030958E+00 +3.00000000E+05
98250 +6.56443834E+00 +3.00000000E+05
98251 +6.49991655E+00 +3.00000000E+05
98252 +6.46437168E+00 +3.00000000E+05
98253 +6.40305567E+00 +3.00000000E+05
98254 +6.48145580E+00 +3.00000000E+05
98255 +6.57609320E+00 +3.00000000E+05
98256 +6.61270571E+00 +3.00000000E+05
98257 +6.57022810E+00 +3.00000000E+05
98258 +6.58162451E+00 +3.00000000E+05
98259 +6.59654999E+00 +3.00000000E+05
98260 +6.71607447E+00 +3.00000000E+05
98261 +6.71327162E+00 +3.00000000E+05
98262 +6.72957182E+00 +3.00000000E+05
98263 +6.78472900E+00 +3.00000000E+05
98264 +6.81345844E+00 +3.00000000E+05
98265 +6.83590698E+00 +3.00000000E+05
98266 +6.96613598E+00 +3.00000000E+05
98267 +7.03300524E+00 +3.00000000E+05
98268 +7.09521151E+00 +3.00000000E+05
98269 +7.13770533E+00 +3.00000000E+05
98270 +7.18693256E+00 +3.00000000E+05
98271 +7.36115074E+00 +3.00000000E+05
98272 +7.44010115E+00 +3.00000000E+05
98273 +7.49319458E+00 +3.00000000E+05
98274 +7.62352943E+00 +3.00000000E+05
98275 +7.82255173E+00 +3.00000000E+05
98276 +8.07282829E+00 +3.00000000E+05
98277 +8.31280804E+00 +3.00000000E+05
98278 +8.61444187E+00 +3.00000000E+05
98279 +9.27141190E+00 +3.00000000E+05
98280 +1.01311235E+01 +3.00000000E+05
98281 +1.11536760E+01 +3.00000000E+05
98282 +1.22525387E+01 +3.00000000E+05
98283 +1.31682253E+01 +3.00000000E+05
98284 +1.39127026E+01 +3.00000000E+05
98285 +1.45159388E+01 +3.00000000E+05
98286 +1.52230158E+01 +3.00000000E+05
98287 +1.58169270E+01 +3.00000000E+05
98288 +1.64286537E+01 +3.00000000E+05
98289 +1.70944576E+01 +3.00000000E+05
98290 +1.79534111E+01 +3.00000000E+05
98291 +1.87295380E+01 +3.00000000E+05
98292 +1.94838848E+01 +3.00000000E+05
98293 +2.04043427E+01 +3.00000000E+05
98294 +2.13850822E+01 +3.00000000E+05
98295 +2.21964417E+01 +3.00000000E+05
98296 +2.31315784E+01 +3.00000000E+05
98297 +2.39921551E+01 +3.00000000E+05
98298 +2.48344269E+01 +3.00000000E+05
98299 +2.56340771E+01 +3.00000000E+05
98300 +2.64509563E+01 +3.00000000E+05
98301 +2.70542278E+01 +3.00000000E+05
98302 +2.75165997E+01 +3.00000000E+05
198 0         01/03/1989 00:00
86546 +1.12323769E+02 +2.00000000E+05
86727 +1.11603081E+02 +2.00000000E+05
86908 +1.11262642E+02 +2.00000000E+05
87089 +1.10675369E+02 +2.00000000E+05
87270 +1.10108917E+02 +2.00000000E+05
87451 +1.09225906E+02 +2.00000000E+05
87631 +1.05754662E+02 +2.00000000E+05
87811 +1.03216866E+02 +2.00000000E+05
87991 +1.01273453E+02 +2.00000000E+05
88171 +9.99168777E+01 +2.00000000E+05
88351 +9.87985306E+01 +2.00000000E+05
88531 +9.75798111E+01 +2.00000000E+05
88711 +9.64291763E+01 +2.00000000E+05
88891 +9.50903931E+01 +2.00000000E+05
89070 +9.21034698E+01 +2.00000000E+05
89249 +9.06600189E+01 +2.00000000E+05
89428 +8.95588684E+01 +2.00000000E+05
89608 +8.82235184E+01 +2.00000000E+05
89788 +8.69467239E+01 +2.00000000E+05
89968 +8.56659546E+01 +2.00000000E+05
90148 +8.42478027E+01 +2.00000000E+05
90327 +7.98051605E+01 +2.00000000E+05
90506 +7.84535980E+01 +2.00000000E+05
90685 +7.71401291E+01 +2.00000000E+05
90864 +7.58212814E+01 +2.00000000E+05
91043 +7.46013184E+01 +2.00000000E+05
91222 +7.34728928E+01 +2.00000000E+05
91401 +7.23708725E+01 +2.00000000E+05
91579 +6.90280991E+01 +2.00000000E+05
91757 +6.83051071E+01 +2.00000000E+05
91935 +6.75427780E+01 +2.00000000E+05
92113 +6.70722580E+01 +2.00000000E+05
92291 +6.63982849E+01 +2.00000000E+05
92469 +6.58746796E+01 +2.00000000E+05
92647 +6.55164261E+01 +2.00000000E+05
92824 +6.38201408E+01 +2.00000000E+05
93001 +6.34249077E+01 +2.00000000E+05
93178 +6.30324059E+01 +2.00000000E+05
93355 +6.28118210E+01 +2.00000000E+05
93532 +6.24998589E+01 +2.00000000E+05
93709 +6.23056030E+01 +2.00000000E+05
93886 +6.20649796E+01 +2.00000000E+05
94063 +6.18784599E+01 +2.00000000E+05
94239 +6.09588470E+01 +2.00000000E+05
94415 +6.08066216E+01 +2.00000000E+05
94591 +6.05045052E+01 +2.00000000E+05
94767 +6.02777405E+01 +2.00000000E+05
94943 +6.01487427E+01 +2.00000000E+05
95118 +5.92707024E+01 +2.00000000E+05
95293 +5.91492424E+01 +2.00000000E+05
95468 +5.89553986E+01 +2.00000000E+05
95643 +5.86107445E+01 +2.00000000E+05
95817 +5.74157448E+01 +4.00000000E+05
95991 +5.70294151E+01 +4.00000000E+05
96164 +5.58905640E+01 +4.00000000E+05
96336 +5.47268600E+01 +4.00000000E+05
96508 +5.45465546E+01 +4.00000000E+05
96679 +5.33667717E+01 +4.00000000E+05
96850 +5.34848976E+01 +4.00000000E+05
97020 +5.18282318E+01 +4.00000000E+05
97190 +5.16926117E+01 +4.00000000E+05
97359 +4.78070984E+01 +4.00000000E+05
97527 +4.18268776E+01 +4.00000000E+05
97691 +3.74627304E+01 +2.00000000E+05
97692 +3.83532639E+01 +2.00000000E+05
97693 +3.98600693E+01 +2.00000000E+05
97694 +4.26238289E+01 +2.00000000E+05
97852 +3.38428040E+01 +2.00000000E+05
97853 +3.43191032E+01 +2.00000000E+05
97854 +3.48062630E+01 +2.00000000E+05
97855 +3.53486252E+01 +2.00000000E+05
97856 +3.59483757E+01 +2.00000000E+05
97857 +3.64801598E+01 +2.00000000E+05
98002 +2.77229481E+01 +2.00000000E+05
98003 +2.82137699E+01 +2.00000000E+05
98004 +2.87125034E+01 +2.00000000E+05
98005 +2.92375393E+01 +2.00000000E+05
98006 +2.97229824E+01 +2.00000000E+05
98007 +3.01112919E+01 +2.00000000E+05
98008 +3.05196629E+01 +2.00000000E+05
98009 +3.11018677E+01 +2.00000000E+05
98010 +3.14695988E+01 +2.00000000E+05
98011 +3.18674908E+01 +2.00000000E+05
98012 +3.24386444E+01 +2.00000000E+05
98013 +3.27953987E+01 +2.00000000E+05
98014 +3.32447472E+01 +2.00000000E+05
98158 +2.72481594E+01 +3.00000000E+05
98192 +1.26442032E+01 +3.00000000E+05
98193 +1.29097176E+01 +3.00000000E+05
98194 +1.29767933E+01 +3.00000000E+05
98195 +1.29161997E+01 +3.00000000E+05
98196 +1.28776159E+01 +3.00000000E+05
98197 +1.28766127E+01 +3.00000000E+05
98198 +1.28558912E+01 +3.00000000E+05
98199 +1.28519058E+01 +3.00000000E+05
98200 +1.27524376E+01 +3.00000000E+05
98201 +1.27949982E+01 +3.00000000E+05
98202 +1.26956778E+01 +3.00000000E+05
98203 +1.25884399E+01 +3.00000000E+05
98204 +1.24172001E+01 +3.00000000E+05
98205 +1.22637348E+01 +3.00000000E+05
98206 +1.21387892E+01 +3.00000000E+05
98207 +1.19358778E+01 +3.00000000E+05
98208 +1.17828465E+01 +3.00000000E+05
98209 +1.16194448E+01 +3.00000000E+05
98210 +1.15135832E+01 +3.00000000E+05
98211 +1.13685961E+01 +3.00000000E+05
98212 +1.12476006E+01 +3.00000000E+05
98213 +1.10268459E+01 +3.00000000E+05
98214 +1.09436102E+01 +3.00000000E+05
98215 +1.08273935E+01 +3.00000000E+05
98216 +1.05001564E+01 +3.00000000E+05
98217 +1.03407879E+01 +3.00000000E+05
98218 +1.02106953E+01 +3.00000000E+05
98219 +1.00477200E+01 +3.00000000E+05
98220 +9.82607841E+00 +3.00000000E+05
98221 +9.66704178E+00 +3.00000000E+05
98222 +9.42184925E+00 +3.00000000E+05
98223 +9.20947361E+00 +3.00000000E+05
98224 +9.02742386E+00 +3.00000000E+05
98225 +8.90776539E+00 +3.00000000E+05
98226 +8.73011303E+00 +3.00000000E+05
98227 +8.56690025E+00 +3.00000000E+05
98228 +8.34461498E+00 +3.00000000E+05
98229 +8.24946308E+00 +3.00000000E+05
98230 +8.10357952E+00 +3.00000000E+05
98231 +7.98674297E+00 +3.00000000E+05
98232 +7.84457970E+00 +3.00000000E+05
98233 +7.69023132E+00 +3.00000000E+05
98234 +7.49467182E+00 +3.00000000E+05
98235 +7.45560026E+00 +3.00000000E+05
98236 +7.36127806E+00 +3.00000000E+05
98237 +7.29221344E+00 +3.00000000E+05
98238 +7.08514261E+00 +3.00000000E+05
98239 +7.00584936E+00 +3.00000000E+05
98240 +6.93601847E+00 +3.00000000E+05
98241 +6.79771948E+00 +3.00000000E+05
98242 +6.75539827E+00 +3.00000000E+05
98243 +6.69235420E+00 +3.00000000E+05
98244 +6.58468008E+00 +3.00000000E+05
98245 +6.47604942E+00 +3.00000000E+05
98246 +6.46321154E+00 +3.00000000E+05
98247 +6.36365795E+00 +3.00000000E+05
98248 +6.40398932E+00 +3.00000000E+05
98249 +6.33276272E+00 +3.00000000E+05
98250 +6.26689148E+00 +3.00000000E+05
98251 +6.20237017E+00 +3.00000000E+05
98252 +6.16682482E+00 +3.00000000E+05
98253 +6.10550880E+00 +3.00000000E+05
98254 +6.17584801E+00 +3.00000000E+05
98255 +6.26922846E+00 +3.00000000E+05
98256 +6.30511618E+00 +3.00000000E+05
98257 +6.26169300E+00 +3.00000000E+05
98258 +6.27217579E+00 +3.00000000E+05
98259 +6.28577900E+00 +3.00000000E+05
98260 +6.39736891E+00 +3.00000000E+05
98261 +6.39258242E+00 +3.00000000E+05
98262 +6.40822172E+00 +3.00000000E+05
98263 +6.46205616E+00 +3.00000000E+05
98264 +6.48946333E+00 +3.00000000E+05
98265 +6.51125050E+00 +3.00000000E+05
98266 +6.63420630E+00 +3.00000000E+05
98267 +6.69975328E+00 +3.00000000E+05
98268 +6.76195908E+00 +3.00000000E+05
98269 +6.80379200E+00 +3.00000000E+05
98270 +6.85235786E+00 +3.00000000E+05
98271 +7.01996422E+00 +3.00000000E+05
98272 +7.09891462E+00 +3.00000000E+05
98273 +7.15200806E+00 +3.00000000E+05
98274 +7.28300381E+00 +3.00000000E+05
98275 +7.47607517E+00 +3.00000000E+05
98276 +7.72701311E+00 +3.00000000E+05
98277 +7.96104145E+00 +3.00000000E+05
98278 +8.25738621E+00 +3.00000000E+05
98279 +8.90311527E+00 +3.00000000E+05
98280 +9.74629593E+00 +3.00000000E+05
98281 +1.07595921E+01 +3.00000000E+05
98282 +1.18558102E+01 +3.00000000E+05
98283 +1.27714968E+01 +3.00000000E+05
98284 +1.35225859E+01 +3.00000000E+05
98285 +1.41324339E+01 +3.00000000E+05
98286 +1.48329000E+01 +3.00000000E+05
98287 +1.54334221E+01 +3.00000000E+05
98288 +1.60517616E+01 +3.00000000E+05
98289 +1.67241783E+01 +3.00000000E+05
98290 +1.75831318E+01 +3.00000000E+05
98291 +1.83658695E+01 +3.00000000E+05
98292 +1.91268291E+01 +3.00000000E+05
98293 +2.00472870E+01 +3.00000000E+05
98294 +2.10280266E+01 +3.00000000E+05
98295 +2.18459969E+01 +3.00000000E+05
98296 +2.27864246E+01 +3.00000000E+05
98297 +2.36483231E+01 +3.00000000E+05
98298 +2.44839821E+01 +3.00000000E+05
98299 +2.52857037E+01 +3.00000000E+05
98300 +2.60943909E+01 +3.00000000E+05
98301 +2.66922798E+01 +3.00000000E+05
98302 +2.71536674E+01 +3.00000000E+05
198 0         01/04/1989 00:00
86546 +1.12276474E+02 +2.00000000E+05
86727 +1.11559891E+02 +2.00000000E+05
86908 +1.11221550E+02 +2.00000000E+05
87089 +1.10636719E+02 +2.00000000E+05
87270 +1.10072746E+02 +2.00000000E+05
87451 +1.09192619E+02 +2.00000000E+05
87631 +1.05718506E+02 +2.00000000E+05
87811 +1.03177467E+02 +2.00000000E+05
87991 +1.01232048E+02 +2.00000000E+05
88171 +9.98759613E+01 +2.00000000E+05
88351 +9.87580795E+01 +2.00000000E+05
88531 +9.75376511E+01 +2.00000000E+05
88711 +9.63874435E+01 +2.00000000E+05
88891 +9.50486450E+01 +2.00000000E+05
89070 +9.20610809E+01 +2.00000000E+05
89249 +9.06165466E+01 +2.00000000E+05
89428 +8.95152359E+01 +2.00000000E+05
89608 +8.81789474E+01 +2.00000000E+05
89788 +8.69028473E+01 +2.00000000E+05
89968 +8.56206512E+01 +2.00000000E+05
90148 +8.42018661E+01 +2.00000000E+05
90327 +7.97492523E+01 +2.00000000E+05
90506 +7.83957825E+01 +2.00000000E+05
90685 +7.70824585E+01 +2.00000000E+05
90864 +7.57637024E+01 +2.00000000E+05
91043 +7.45417252E+01 +2.00000000E+05
91222 +7.34131851E+01 +2.00000000E+05
91401 +7.23109283E+01 +2.00000000E+05
91579 +6.89653091E+01 +2.00000000E+05
91757 +6.82430038E+01 +2.00000000E+05
91935 +6.74811630E+01 +2.00000000E+05
92113 +6.70109024E+01 +2.00000000E+05
92291 +6.63357391E+01 +2.00000000E+05
92469 +6.58123932E+01 +2.00000000E+05
92647 +6.54542923E+01 +2.00000000E+05
92824 +6.37573166E+01 +2.00000000E+05
93001 +6.33607254E+01 +2.00000000E+05
93178 +6.29683113E+01 +2.00000000E+05
93355 +6.27478371E+01 +2.00000000E+05
93532 +6.24355278E+01 +2.00000000E+05
93709 +6.22402763E+01 +2.00000000E+05
93886 +6.19997330E+01 +2.00000000E+05
94063 +6.18131371E+01 +2.00000000E+05
94239 +6.08926659E+01 +2.00000000E+05
94415 +6.07401352E+01 +2.00000000E+05
94591 +6.04369354E+01 +2.00000000E+05
94767 +6.02101402E+01 +2.00000000E+05
94943 +6.00810776E+01 +2.00000000E+05
95118 +5.92019691E+01 +2.00000000E+05
95293 +5.90804214E+01 +2.00000000E+05
95468 +5.88864555E+01 +2.00000000E+05
95643 +5.85401192E+01 +2.00000000E+05
95817 +5.73427238E+01 +4.00000000E+05
95991 +5.69547806E+01 +4.00000000E+05
96164 +5.58142014E+01 +4.00000000E+05
96336 +5.46494675E+01 +4.00000000E+05
96508 +5.44680977E+01 +4.00000000E+05
96679 +5.32888298E+01 +4.00000000E+05
96850 +5.34095650E+01 +4.00000000E+05
97020 +5.17569313E+01 +4.00000000E+05
97190 +5.16226768E+01 +4.00000000E+05
97359 +4.77378120E+01 +4.00000000E+05
97527 +4.17482948E+01 +4.00000000E+05
97691 +3.74727554E+01 +2.00000000E+05
97692 +3.83632050E+01 +2.00000000E+05
97693 +3.98698578E+01 +2.00000000E+05
97694 +4.26334534E+01 +2.00000000E+05
97852 +3.38529892E+01 +2.00000000E+05
97853 +3.43292809E+01 +2.00000000E+05
97854 +3.48163795E+01 +2.00000000E+05
97855 +3.53587837E+01 +2.00000000E+05
97856 +3.59584846E+01 +2.00000000E+05
97857 +3.64902687E+01 +2.00000000E+05
98002 +2.77327671E+01 +2.00000000E+05
98003 +2.82235489E+01 +2.00000000E+05
98004 +2.87223835E+01 +2.00000000E+05
98005 +2.92475471E+01 +2.00000000E+05
98006 +2.97329636E+01 +2.00000000E+05
98007 +3.01213455E+01 +2.00000000E+05
98008 +3.05297813E+01 +2.00000000E+05
98009 +3.11120243E+01 +2.00000000E+05
98010 +3.14797878E+01 +2.00000000E+05
98011 +3.18776627E+01 +2.00000000E+05
98012 +3.24488602E+01 +2.00000000E+05
98013 +3.28056183E+01 +2.00000000E+05
98014 +3.32549477E+01 +2.00000000E+05
98158 +2.72578011E+01 +3.00000000E+05
98192 +1.26472864E+01 +3.00000000E+05
98193 +1.29128351E+01 +3.00000000E+05
98194 +1.29799385E+01 +3.00000000E+05
98195 +1.29193697E+01 +3.00000000E+05
98196 +1.28808155E+01 +3.00000000E+05
98197 +1.28798370E+01 +3.00000000E+05
98198 +1.28591356E+01 +3.00000000E+05
98199 +1.28551741E+01 +3.00000000E+05
98200 +1.27557268E+01 +3.00000000E+05
98201 +1.27983217E+01 +3.00000000E+05
98202 +1.26990471E+01 +3.00000000E+05
98203 +1.25918407E+01 +3.00000000E+05
98204 +1.24206247E+01 +3.00000000E+05
98205 +1.22671833E+01 +3.00000000E+05
98206 +1.21422577E+01 +3.00000000E+05
98207 +1.19394598E+01 +3.00000000E+05
98208 +1.17864180E+01 +3.00000000E+05
98209 +1.16231985E+01 +3.00000000E+05
98210 +1.15173502E+01 +3.00000000E+05
98211 +1.13723755E+01 +3.00000000E+05
98212 +1.12515621E+01 +3.00000000E+05
98213 +1.10308199E+01 +3.00000000E+05
98214 +1.09477711E+01 +3.00000000E+05
98215 +1.08317375E+01 +3.00000000E+05
98216 +1.05045147E+01 +3.00000000E+05
98217 +1.03453341E+01 +3.00000000E+05
98218 +1.02152519E+01 +3.00000000E+05
98219 +1.00524664E+01 +3.00000000E+05
98220 +9.83101559E+00 +3.00000000E+05
98221 +9.67199039E+00 +3.00000000E+05
98222 +9.42698956E+00 +3.00000000E+05
98223 +9.21480560E+00 +3.00000000E+05
98224 +9.03276920E+00 +3.00000000E+05
98225 +8.91330433E+00 +3.00000000E+05
98226 +8.73567009E+00 +3.00000000E+05
98227 +8.57264423E+00 +3.00000000E+05
98228 +8.35037899E+00 +3.00000000E+05
98229 +8.25541973E+00 +3.00000000E+05
98230 +8.10955524E+00 +3.00000000E+05
98231 +7.99291325E+00 +3.00000000E+05
98232 +7.85076332E+00 +3.00000000E+05
98233 +7.69660997E+00 +3.00000000E+05
98234 +7.50107193E+00 +3.00000000E+05
98235 +7.46218920E+00 +3.00000000E+05
98236 +7.36789036E+00 +3.00000000E+05
98237 +7.29902315E+00 +3.00000000E+05
98238 +7.09196758E+00 +3.00000000E+05
98239 +7.01287174E+00 +3.00000000E+05
98240 +6.94306326E+00 +3.00000000E+05
98241 +6.80495310E+00 +3.00000000E+05
98242 +6.76270628E+00 +3.00000000E+05
98243 +6.69966221E+00 +3.00000000E+05
98244 +6.59216261E+00 +3.00000000E+05
98245 +6.48353577E+00 +3.00000000E+05
98246 +6.47089291E+00 +3.00000000E+05
98247 +6.37135363E+00 +3.00000000E+05
98248 +6.41181946E+00 +3.00000000E+05
98249 +6.34059286E+00 +3.00000000E+05
98250 +6.27472210E+00 +3.00000000E+05
98251 +6.21020031E+00 +3.00000000E+05
98252 +6.17465496E+00 +3.00000000E+05
98253 +6.11333895E+00 +3.00000000E+05
98254 +6.18389034E+00 +3.00000000E+05
98255 +6.27730370E+00 +3.00000000E+05
98256 +6.31321049E+00 +3.00000000E+05
98257 +6.26981211E+00 +3.00000000E+05
98258 +6.28031921E+00 +3.00000000E+05
98259 +6.29395723E+00 +3.00000000E+05
98260 +6.40575600E+00 +3.00000000E+05
98261 +6.40102148E+00 +3.00000000E+05
98262 +6.41667795E+00 +3.00000000E+05
98263 +6.47054768E+00 +3.00000000E+05
98264 +6.49798965E+00 +3.00000000E+05
98265 +6.51979446E+00 +3.00000000E+05
98266 +6.64294100E+00 +3.00000000E+05
98267 +6.70852327E+00 +3.00000000E+05
98268 +6.77072906E+00 +3.00000000E+05
98269 +6.81257915E+00 +3.00000000E+05
98270 +6.86116266E+00 +3.00000000E+05
98271 +7.02894258E+00 +3.00000000E+05
98272 +7.10789299E+00 +3.00000000E+05
98273 +7.16098642E+00 +3.00000000E+05
98274 +7.29196501E+00 +3.00000000E+05
98275 +7.48519278E+00 +3.00000000E+05
98276 +7.73611355E+00 +3.00000000E+05
98277 +7.97029877E+00 +3.00000000E+05
98278 +8.26678181E+00 +3.00000000E+05
98279 +8.91280651E+00 +3.00000000E+05
98280 +9.75642300E+00 +3.00000000E+05
98281 +1.07699623E+01 +3.00000000E+05
98282 +1.18662500E+01 +3.00000000E+05
98283 +1.27819366E+01 +3.00000000E+05
98284 +1.35328522E+01 +3.00000000E+05
98285 +1.41425257E+01 +3.00000000E+05
98286 +1.48431654E+01 +3.00000000E+05
98287 +1.54435148E+01 +3.00000000E+05
98288 +1.60616798E+01 +3.00000000E+05
98289 +1.67339230E+01 +3.00000000E+05
98290 +1.75928764E+01 +3.00000000E+05
98291 +1.83754406E+01 +3.00000000E+05
98292 +1.91362247E+01 +3.00000000E+05
98293 +2.00566826E+01 +3.00000000E+05
98294 +2.10374222E+01 +3.00000000E+05
98295 +2.18552189E+01 +3.00000000E+05