# OC package for MODFLOW-USG generated by Flopy 3.10.0.dev5
HEAD PRINT FORMAT   0
HEAD SAVE UNIT    51
DRAWDOWN PRINT FORMAT   0
COMPACT BUDGET AUX

period 1 step 1 
  print budget
  print head
  save head
  save budget

