# SFR package for MODFLOW-USG generated by Flopy 3.10.0.dev3
REACHINPUT
1386 17 0 0 86400.00000000 0.00010000 0 0 1 
2333 1 1 17.72352 2068.6177 0.054968983 1.0 0.1
2335 1 2 17.72352 2067.6436 0.054968983 1.0 0.1
2560 1 3 17.72352 2066.6692 0.054968983 1.0 0.1
2562 1 4 17.72352 2065.695 0.054968983 1.0 0.1
2568 1 5 17.72352 2064.7207 0.054968983 1.0 0.1
2570 1 6 17.72352 2063.7466 0.054968983 1.0 0.1
2800 1 7 17.72352 2062.7722 0.054968983 1.0 0.1
2802 1 8 17.72352 2061.798 0.054968983 1.0 0.1
2808 1 9 17.72352 2060.8237 0.054968983 1.0 0.1
2810 1 10 17.72352 2059.8496 0.054968983 1.0 0.1
3052 1 11 17.72352 2058.8752 0.054968983 1.0 0.1
3054 1 12 17.72352 2057.9011 0.054968983 1.0 0.1
3060 1 13 17.72352 2056.9268 0.054968983 1.0 0.1
3062 1 14 17.72352 2055.9526 0.054968983 1.0 0.1
3312 1 15 17.72352 2054.9783 0.054968983 1.0 0.1
3314 1 16 17.72352 2054.0042 0.054968983 1.0 0.1
3320 1 17 17.72352 2053.0298 0.054968983 1.0 0.1
3322 1 18 17.72352 2052.0557 0.054968983 1.0 0.1
3595 1 19 17.72352 2051.0813 0.054968983 1.0 0.1
3597 1 20 17.72352 2050.1072 0.054968983 1.0 0.1
3603 1 21 17.72352 2049.1328 0.054968983 1.0 0.1
3605 1 22 17.72352 2048.1587 0.054968983 1.0 0.1
3884 1 23 17.72352 2047.1844 0.054968983 1.0 0.1
3886 1 24 17.72352 2046.2102 0.054968983 1.0 0.1
3892 1 25 17.72352 2045.236 0.054968983 1.0 0.1
3894 1 26 17.72352 2044.2617 0.054968983 1.0 0.1
4197 1 27 17.72352 2043.2875 0.054968983 1.0 0.1
4199 1 28 17.726458 2042.3131 0.054968983 1.0 0.1
4202 1 29 25.064842 2040.9353 0.054968983 1.0 0.1
4203 1 30 25.064842 2039.5575 0.054968983 1.0 0.1
4497 1 31 25.064842 2038.1797 0.054968983 1.0 0.1
4498 1 32 25.061907 2036.802 0.054968983 1.0 0.1
4504 1 33 17.72352 2035.8278 0.054968983 1.0 0.1
4506 1 34 17.72352 2034.8535 0.054968983 1.0 0.1
4817 1 35 17.72352 2033.8793 0.054968983 1.0 0.1
4819 1 36 17.72352 2032.905 0.054968983 1.0 0.1
4825 1 37 17.72352 2031.9308 0.054968983 1.0 0.1
4827 1 38 17.72352 2030.9565 0.054968983 1.0 0.1
5198 1 39 17.72352 2029.9823 0.054968983 1.0 0.1
5200 1 40 17.726458 2029.0079 0.054968983 1.0 0.1
5203 1 41 25.064842 2027.6301 0.054968983 1.0 0.1
5204 1 42 25.064842 2026.2523 0.054968983 1.0 0.1
5584 1 43 25.064842 2024.8746 0.054968983 1.0 0.1
5585 1 44 25.061907 2023.497 0.054968983 1.0 0.1
5591 1 45 17.72352 2022.5227 0.054968983 1.0 0.1
5593 1 46 17.72352 2021.5485 0.054968983 1.0 0.1
5969 1 47 17.72352 2020.5742 0.054968983 1.0 0.1
5971 1 48 17.72352 2019.6 0.054968983 1.0 0.1
5977 1 49 17.72352 2018.6257 0.054968983 1.0 0.1
5979 1 50 17.72352 2017.6515 0.054968983 1.0 0.1
6328 1 51 17.72352 2016.6772 0.054968983 1.0 0.1
6330 1 52 17.72352 2015.703 0.054968983 1.0 0.1
6336 1 53 17.72352 2014.7288 0.054968983 1.0 0.1
6338 1 54 17.72352 2013.7545 0.054968983 1.0 0.1
6735 1 55 17.72352 2012.7803 0.054968983 1.0 0.1
6737 1 56 17.72352 2011.806 0.054968983 1.0 0.1
6743 1 57 17.72352 2010.8318 0.054968983 1.0 0.1
6745 1 58 17.72352 2009.8575 0.054968983 1.0 0.1
7172 1 59 17.72352 2008.8833 0.054968983 1.0 0.1
7174 1 60 17.72352 2007.909 0.054968983 1.0 0.1
7180 1 61 17.72352 2006.9348 0.054968983 1.0 0.1
7182 1 62 17.72352 2005.9606 0.054968983 1.0 0.1
7629 1 63 17.72352 2004.9863 0.054968983 1.0 0.1
7631 1 64 17.72352 2004.0121 0.054968983 1.0 0.1
7637 1 65 17.72352 2003.0378 0.054968983 1.0 0.1
7639 1 66 17.72352 2002.0636 0.054968983 1.0 0.1
8125 1 67 17.72352 2001.0894 0.054968983 1.0 0.1
8127 1 68 17.72352 2000.1151 0.054968983 1.0 0.1
8133 1 69 17.72352 1999.1409 0.054968983 1.0 0.1
8135 1 70 17.72352 1998.1666 0.054968983 1.0 0.1
8660 1 71 17.72352 1997.1924 0.054968983 1.0 0.1
8662 1 72 17.72352 1996.2181 0.054968983 1.0 0.1
8668 1 73 17.72352 1995.2439 0.054968983 1.0 0.1
8670 1 74 17.72352 1994.2697 0.054968983 1.0 0.1
9246 1 75 17.72352 1993.2954 0.054968983 1.0 0.1
9248 1 76 17.72352 1992.3212 0.054968983 1.0 0.1
9254 1 77 17.72352 1991.3469 0.054968983 1.0 0.1
9256 1 78 17.72352 1990.3727 0.054968983 1.0 0.1
9772 1 79 17.72352 1989.3984 0.054968983 1.0 0.1
9774 1 80 17.726458 1988.424 0.054968983 1.0 0.1
9780 1 81 25.04479 1987.0474 0.054968983 1.0 0.1
9783 1 82 25.04479 1985.6707 0.054968983 1.0 0.1
10298 1 83 25.04479 1984.294 0.054968983 1.0 0.1
10301 1 84 25.04479 1982.9172 0.054968983 1.0 0.1
10310 1 85 17.72352 1981.943 0.054968983 1.0 0.1
10312 1 86 17.72352 1980.9688 0.054968983 1.0 0.1
10743 1 87 17.72352 1979.9945 0.054968983 1.0 0.1
10745 1 88 17.72352 1979.0203 0.054968983 1.0 0.1
10751 1 89 17.72352 1978.046 0.054968983 1.0 0.1
10753 1 90 17.72352 1977.0718 0.054968983 1.0 0.1
11180 1 91 17.72352 1976.0975 0.054968983 1.0 0.1
11182 1 92 17.72352 1975.1233 0.054968983 1.0 0.1
11188 1 93 17.72352 1974.149 0.054968983 1.0 0.1
11190 1 94 17.72352 1973.1748 0.054968983 1.0 0.1
11613 1 95 17.72352 1972.2006 0.054968983 1.0 0.1
11615 1 96 17.72352 1971.2263 0.054968983 1.0 0.1
11621 1 97 17.72352 1970.2521 0.054968983 1.0 0.1
11623 1 98 17.72352 1969.2778 0.054968983 1.0 0.1
12039 1 99 17.72352 1968.3036 0.054968983 1.0 0.1
12041 1 100 17.726458 1967.3292 0.054968983 1.0 0.1
12047 1 101 25.04479 1965.9525 0.054968983 1.0 0.1
12050 1 102 25.04479 1964.5758 0.054968983 1.0 0.1
12561 1 103 25.04479 1963.1991 0.054968983 1.0 0.1
12564 1 104 25.04479 1961.8225 0.054968983 1.0 0.1
12573 1 105 17.72352 1960.8483 0.054968983 1.0 0.1
12575 1 106 17.72352 1959.874 0.054968983 1.0 0.1
13078 1 107 17.72352 1958.8997 0.054968983 1.0 0.1
13080 1 108 17.726458 1957.9253 0.054968983 1.0 0.1
13086 1 109 25.04479 1956.5486 0.054968983 1.0 0.1
13089 1 110 25.04479 1955.172 0.054968983 1.0 0.1
13647 1 111 25.04479 1953.7953 0.054968983 1.0 0.1
13650 1 112 25.04479 1952.4186 0.054968983 1.0 0.1
13659 1 113 25.04479 1951.0419 0.054968983 1.0 0.1
13662 1 114 25.04479 1949.6652 0.054968983 1.0 0.1
14148 1 115 25.04479 1948.2885 0.054968983 1.0 0.1
14151 1 116 25.04479 1946.9119 0.054968983 1.0 0.1
14160 1 117 17.72352 1945.9376 0.054968983 1.0 0.1
14162 1 118 17.72352 1944.9634 0.054968983 1.0 0.1
14598 1 119 17.72352 1943.9891 0.054968983 1.0 0.1
14600 1 120 17.726458 1943.0146 0.054968983 1.0 0.1
14606 1 121 25.04479 1941.638 0.054968983 1.0 0.1
14609 1 122 25.04479 1940.2614 0.054968983 1.0 0.1
15160 1 123 25.04479 1938.8846 0.054968983 1.0 0.1
15163 1 124 25.04479 1937.5079 0.054968983 1.0 0.1
2693 2 1 17.692694 2143.7031 0.029107228 1.0 0.1
2695 2 2 17.692694 2143.188 0.029107228 1.0 0.1
2925 2 3 17.692694 2142.673 0.029107228 1.0 0.1
2927 2 4 17.695625 2142.158 0.029107228 1.0 0.1
2933 2 5 25.00123 2141.4302 0.029107228 1.0 0.1
2936 2 6 25.00123 2140.7026 0.029107228 1.0 0.1
3185 2 7 25.00123 2139.9749 0.029107228 1.0 0.1
3188 2 8 25.00123 2139.247 0.029107228 1.0 0.1
3197 2 9 17.692694 2138.7322 0.029107228 1.0 0.1
3199 2 10 17.692694 2138.217 0.029107228 1.0 0.1
3436 2 11 17.692694 2137.7021 0.029107228 1.0 0.1
3438 2 12 17.692694 2137.1873 0.029107228 1.0 0.1
3444 2 13 17.692694 2136.672 0.029107228 1.0 0.1
3446 2 14 17.692694 2136.1572 0.029107228 1.0 0.1
3719 2 15 17.692694 2135.6423 0.029107228 1.0 0.1
3721 2 16 17.692694 2135.1272 0.029107228 1.0 0.1
3727 2 17 17.692694 2134.6123 0.029107228 1.0 0.1
3729 2 18 17.692694 2134.0972 0.029107228 1.0 0.1
4008 2 19 17.692694 2133.5823 0.029107228 1.0 0.1
4010 2 20 17.692694 2133.0674 0.029107228 1.0 0.1
4016 2 21 17.692694 2132.5522 0.029107228 1.0 0.1
4018 2 22 17.692694 2132.0374 0.029107228 1.0 0.1
4320 2 23 17.692694 2131.5225 0.029107228 1.0 0.1
4322 2 24 17.692694 2131.0073 0.029107228 1.0 0.1
4328 2 25 17.692694 2130.4924 0.029107228 1.0 0.1
4330 2 26 17.692694 2129.9773 0.029107228 1.0 0.1
4641 2 27 17.692694 2129.4624 0.029107228 1.0 0.1
4643 2 28 17.692694 2128.9475 0.029107228 1.0 0.1
4649 2 29 17.692694 2128.4324 0.029107228 1.0 0.1
4651 2 30 17.692694 2127.9175 0.029107228 1.0 0.1
4986 2 31 17.692694 2127.4023 0.029107228 1.0 0.1
4988 2 32 17.695625 2126.8875 0.029107228 1.0 0.1
4994 2 33 25.00123 2126.1597 0.029107228 1.0 0.1
4997 2 34 25.00123 2125.432 0.029107228 1.0 0.1
5393 2 35 25.00123 2124.7043 0.029107228 1.0 0.1
5396 2 36 25.00123 2123.9766 0.029107228 1.0 0.1
5405 2 37 17.692694 2123.4614 0.029107228 1.0 0.1
5407 2 38 17.692694 2122.9465 0.029107228 1.0 0.1
5795 2 39 17.692694 2122.4316 0.029107228 1.0 0.1
5797 2 40 17.692694 2121.9165 0.029107228 1.0 0.1
5803 2 41 17.692694 2121.4016 0.029107228 1.0 0.1
5805 2 42 17.692694 2120.8867 0.029107228 1.0 0.1
6157 2 43 17.692694 2120.3716 0.029107228 1.0 0.1
6159 2 44 17.692694 2119.8567 0.029107228 1.0 0.1
6165 2 45 17.692694 2119.3416 0.029107228 1.0 0.1
6167 2 46 17.692694 2118.8267 0.029107228 1.0 0.1
6516 2 47 17.692694 2118.3118 0.029107228 1.0 0.1
6518 2 48 17.695625 2117.7966 0.029107228 1.0 0.1
6521 2 49 25.021246 2117.0684 0.029107228 1.0 0.1
6522 2 50 25.021246 2116.34 0.029107228 1.0 0.1
6923 2 51 25.021246 2115.6118 0.029107228 1.0 0.1
6924 2 52 25.018316 2114.8835 0.029107228 1.0 0.1
6930 2 53 17.692694 2114.3684 0.029107228 1.0 0.1
6932 2 54 17.692694 2113.8535 0.029107228 1.0 0.1
7391 2 55 17.692694 2113.3386 0.029107228 1.0 0.1
7393 2 56 17.695625 2112.8235 0.029107228 1.0 0.1
7396 2 57 25.021246 2112.0952 0.029107228 1.0 0.1
7397 2 58 25.021246 2111.367 0.029107228 1.0 0.1
7887 2 59 25.021246 2110.6387 0.029107228 1.0 0.1
7888 2 60 25.021246 2109.9104 0.029107228 1.0 0.1
7891 2 61 25.021246 2109.182 0.029107228 1.0 0.1
7892 2 62 25.021246 2108.4536 0.029107228 1.0 0.1
8409 2 63 25.021246 2107.7253 0.029107228 1.0 0.1
8410 2 64 25.018316 2106.997 0.029107228 1.0 0.1
8407 2 65 17.692694 2106.4822 0.029107228 1.0 0.1
8406 2 66 17.692694 2105.9673 0.029107228 1.0 0.1
8395 2 67 17.692694 2105.4521 0.029107228 1.0 0.1
8394 2 68 17.695625 2104.9373 0.029107228 1.0 0.1
8397 2 69 25.021246 2104.2087 0.029107228 1.0 0.1
8398 2 70 25.021246 2103.4805 0.029107228 1.0 0.1
8978 2 71 25.021246 2102.7522 0.029107228 1.0 0.1
8979 2 72 25.018316 2102.024 0.029107228 1.0 0.1
8985 2 73 17.692694 2101.509 0.029107228 1.0 0.1
8987 2 74 17.692694 2100.9941 0.029107228 1.0 0.1
9551 2 75 17.692694 2100.479 0.029107228 1.0 0.1
9553 2 76 17.692694 2099.964 0.029107228 1.0 0.1
9559 2 77 17.692694 2099.4492 0.029107228 1.0 0.1
9561 2 78 17.692694 2098.934 0.029107228 1.0 0.1
10071 2 79 17.692694 2098.4192 0.029107228 1.0 0.1
10073 2 80 17.692694 2097.904 0.029107228 1.0 0.1
10079 2 81 17.692694 2097.3892 0.029107228 1.0 0.1
10081 2 82 17.692694 2096.8743 0.029107228 1.0 0.1
10524 2 83 17.692694 2096.3591 0.029107228 1.0 0.1
10526 2 84 17.692694 2095.8442 0.029107228 1.0 0.1
10532 2 85 17.692694 2095.3293 0.029107228 1.0 0.1
10534 2 86 17.692694 2094.8142 0.029107228 1.0 0.1
10937 2 87 17.692694 2094.2993 0.029107228 1.0 0.1
10939 2 88 17.695625 2093.7842 0.029107228 1.0 0.1
10945 2 89 25.00123 2093.0564 0.029107228 1.0 0.1
10948 2 90 25.00123 2092.3289 0.029107228 1.0 0.1
11379 2 91 25.00123 2091.601 0.029107228 1.0 0.1
11382 2 92 25.00123 2090.8733 0.029107228 1.0 0.1
11391 2 93 17.692694 2090.3584 0.029107228 1.0 0.1
11393 2 94 17.692694 2089.8433 0.029107228 1.0 0.1
11821 2 95 17.692694 2089.3284 0.029107228 1.0 0.1
11823 2 96 17.692694 2088.8135 0.029107228 1.0 0.1
11829 2 97 17.692694 2088.2983 0.029107228 1.0 0.1
11831 2 98 17.692694 2087.7834 0.029107228 1.0 0.1
12334 2 99 17.692694 2087.2683 0.029107228 1.0 0.1
12336 2 100 17.692694 2086.7534 0.029107228 1.0 0.1
12342 2 101 17.692694 2086.2385 0.029107228 1.0 0.1
12344 2 102 17.692694 2085.7234 0.029107228 1.0 0.1
12859 2 103 17.692694 2085.2085 0.029107228 1.0 0.1
12861 2 104 17.692694 2084.6936 0.029107228 1.0 0.1
12867 2 105 17.692694 2084.1785 0.029107228 1.0 0.1
12869 2 106 17.692694 2083.6636 0.029107228 1.0 0.1
13383 2 107 17.692694 2083.1484 0.029107228 1.0 0.1
13385 2 108 17.695625 2082.6335 0.029107228 1.0 0.1
13391 2 109 25.00123 2081.9058 0.029107228 1.0 0.1
13394 2 110 25.00123 2081.178 0.029107228 1.0 0.1
13892 2 111 25.00123 2080.4504 0.029107228 1.0 0.1
13895 2 112 25.00123 2079.7227 0.029107228 1.0 0.1
13904 2 113 17.692694 2079.2075 0.029107228 1.0 0.1
13906 2 114 17.692694 2078.6926 0.029107228 1.0 0.1
14348 2 115 17.692694 2078.1777 0.029107228 1.0 0.1
14350 2 116 17.692694 2077.6626 0.029107228 1.0 0.1
14356 2 117 17.692694 2077.1477 0.029107228 1.0 0.1
14358 2 118 17.692694 2076.6328 0.029107228 1.0 0.1
14829 2 119 17.692694 2076.1177 0.029107228 1.0 0.1
14831 2 120 17.695625 2075.6025 0.029107228 1.0 0.1
14837 2 121 25.00123 2074.875 0.029107228 1.0 0.1
14840 2 122 25.00123 2074.1472 0.029107228 1.0 0.1
15413 2 123 25.00123 2073.4194 0.029107228 1.0 0.1
15416 2 124 25.00123 2072.6917 0.029107228 1.0 0.1
15425 2 125 17.692694 2072.1768 0.029107228 1.0 0.1
15427 2 126 17.692694 2071.6619 0.029107228 1.0 0.1
16064 2 127 17.692694 2071.1467 0.029107228 1.0 0.1
16066 2 128 17.692694 2070.6318 0.029107228 1.0 0.1
16072 2 129 17.692694 2070.117 0.029107228 1.0 0.1
16074 2 130 17.692694 2069.6018 0.029107228 1.0 0.1
16731 2 131 17.692694 2069.087 0.029107228 1.0 0.1
16733 2 132 17.692694 2068.5718 0.029107228 1.0 0.1
16739 2 133 17.692694 2068.057 0.029107228 1.0 0.1
16741 2 134 17.692694 2067.542 0.029107228 1.0 0.1
17474 2 135 17.692694 2067.0269 0.029107228 1.0 0.1
17476 2 136 17.692694 2066.512 0.029107228 1.0 0.1
17482 2 137 17.692694 2065.997 0.029107228 1.0 0.1
17484 2 138 17.692694 2065.482 0.029107228 1.0 0.1
18284 2 139 17.692694 2064.967 0.029107228 1.0 0.1
18286 2 140 17.695625 2064.452 0.029107228 1.0 0.1
18289 2 141 25.021246 2063.7236 0.029107228 1.0 0.1
18290 2 142 25.021246 2062.9954 0.029107228 1.0 0.1
19130 2 143 25.021246 2062.267 0.029107228 1.0 0.1
19131 2 144 25.018316 2061.5388 0.029107228 1.0 0.1
19137 2 145 17.692694 2061.024 0.029107228 1.0 0.1
19139 2 146 17.692694 2060.5088 0.029107228 1.0 0.1
19948 2 147 17.692694 2059.994 0.029107228 1.0 0.1
19950 2 148 17.692694 2059.4788 0.029107228 1.0 0.1
19956 2 149 17.692694 2058.9639 0.029107228 1.0 0.1
19958 2 150 17.692694 2058.449 0.029107228 1.0 0.1
20675 2 151 17.692694 2057.9338 0.029107228 1.0 0.1
20677 2 152 17.695625 2057.419 0.029107228 1.0 0.1
20683 2 153 25.00123 2056.6912 0.029107228 1.0 0.1
20686 2 154 25.00123 2055.9634 0.029107228 1.0 0.1
21320 2 155 25.00123 2055.2356 0.029107228 1.0 0.1
21323 2 156 25.00123 2054.508 0.029107228 1.0 0.1
21332 2 157 17.692694 2053.993 0.029107228 1.0 0.1
21334 2 158 17.692694 2053.478 0.029107228 1.0 0.1
21909 2 159 17.692694 2052.9631 0.029107228 1.0 0.1
21911 2 160 17.685616 2052.4482 0.029107228 1.0 0.1
3799 3 1 17.536062 2146.3555 0.045894083 1.0 0.1
3801 3 2 17.536062 2145.5505 0.045894083 1.0 0.1
4092 3 3 17.536062 2144.7458 0.045894083 1.0 0.1
4094 3 4 17.538969 2143.941 0.045894083 1.0 0.1
4097 3 5 24.799738 2142.8027 0.045894083 1.0 0.1
4098 3 6 24.799738 2141.6646 0.045894083 1.0 0.1
4392 3 7 24.799738 2140.5264 0.045894083 1.0 0.1
4393 3 8 24.796833 2139.3882 0.045894083 1.0 0.1
4399 3 9 17.536062 2138.5835 0.045894083 1.0 0.1
4401 3 10 17.536062 2137.7788 0.045894083 1.0 0.1
4724 3 11 17.536062 2136.9739 0.045894083 1.0 0.1
4726 3 12 17.538969 2136.169 0.045894083 1.0 0.1
4729 3 13 24.799738 2135.0308 0.045894083 1.0 0.1
4730 3 14 24.799738 2133.8926 0.045894083 1.0 0.1
5081 3 15 24.799738 2132.7544 0.045894083 1.0 0.1
5082 3 16 24.799738 2131.6162 0.045894083 1.0 0.1
5085 3 17 24.799738 2130.4783 0.045894083 1.0 0.1
5086 3 18 24.799738 2129.34 0.045894083 1.0 0.1
5478 3 19 24.799738 2128.202 0.045894083 1.0 0.1
5479 3 20 24.799738 2127.0637 0.045894083 1.0 0.1
5482 3 21 24.799738 2125.9255 0.045894083 1.0 0.1
5483 3 22 24.799738 2124.7874 0.045894083 1.0 0.1
5863 3 23 24.799738 2123.6492 0.045894083 1.0 0.1
5864 3 24 24.796833 2122.5112 0.045894083 1.0 0.1
5870 3 25 17.536062 2121.7063 0.045894083 1.0 0.1
5872 3 26 17.536062 2120.9016 0.045894083 1.0 0.1
6224 3 27 17.536062 2120.0967 0.045894083 1.0 0.1
6226 3 28 17.536062 2119.292 0.045894083 1.0 0.1
6232 3 29 17.536062 2118.487 0.045894083 1.0 0.1
6234 3 30 17.536062 2117.6824 0.045894083 1.0 0.1
6595 3 31 17.536062 2116.8774 0.045894083 1.0 0.1
6597 3 32 17.538969 2116.0725 0.045894083 1.0 0.1
6600 3 33 24.799738 2114.9346 0.045894083 1.0 0.1
6601 3 34 24.799738 2113.7964 0.045894083 1.0 0.1
7014 3 35 24.799738 2112.6582 0.045894083 1.0 0.1
7015 3 36 24.799738 2111.52 0.045894083 1.0 0.1
7018 3 37 24.799738 2110.3818 0.045894083 1.0 0.1
7019 3 38 24.799738 2109.2437 0.045894083 1.0 0.1
7470 3 39 24.799738 2108.1055 0.045894083 1.0 0.1
7471 3 40 24.799738 2106.9673 0.045894083 1.0 0.1
7474 3 41 24.799738 2105.829 0.045894083 1.0 0.1
7475 3 42 24.799738 2104.691 0.045894083 1.0 0.1
7965 3 43 24.799738 2103.5527 0.045894083 1.0 0.1
7966 3 44 24.796833 2102.4148 0.045894083 1.0 0.1
7972 3 45 17.536062 2101.61 0.045894083 1.0 0.1
7974 3 46 17.536062 2100.8052 0.045894083 1.0 0.1
8499 3 47 17.536062 2100.0005 0.045894083 1.0 0.1
8501 3 48 17.538969 2099.1956 0.045894083 1.0 0.1
8504 3 49 24.799738 2098.0574 0.045894083 1.0 0.1
8505 3 50 24.799738 2096.9192 0.045894083 1.0 0.1
9073 3 51 24.799738 2095.781 0.045894083 1.0 0.1
9074 3 52 24.796833 2094.643 0.045894083 1.0 0.1
9080 3 53 17.536062 2093.8381 0.045894083 1.0 0.1
9082 3 54 17.536062 2093.0334 0.045894083 1.0 0.1
9622 3 55 17.536062 2092.2285 0.045894083 1.0 0.1
9624 3 56 17.536062 2091.4238 0.045894083 1.0 0.1
9630 3 57 17.536062 2090.619 0.045894083 1.0 0.1
9632 3 58 17.536062 2089.8142 0.045894083 1.0 0.1
10139 3 59 17.536062 2089.0093 0.045894083 1.0 0.1
10141 3 60 17.536062 2088.2046 0.045894083 1.0 0.1
10147 3 61 17.536062 2087.3997 0.045894083 1.0 0.1
10149 3 62 17.536062 2086.595 0.045894083 1.0 0.1
10592 3 63 17.536062 2085.79 0.045894083 1.0 0.1
10594 3 64 17.536062 2084.9854 0.045894083 1.0 0.1
10600 3 65 17.536062 2084.1807 0.045894083 1.0 0.1
10602 3 66 17.536062 2083.3757 0.045894083 1.0 0.1
11017 3 67 17.536062 2082.571 0.045894083 1.0 0.1
11019 3 68 17.536062 2081.766 0.045894083 1.0 0.1
11025 3 69 17.536062 2080.9614 0.045894083 1.0 0.1
11027 3 70 17.536062 2080.1565 0.045894083 1.0 0.1
11450 3 71 17.536062 2079.3518 0.045894083 1.0 0.1
11452 3 72 17.536062 2078.5469 0.045894083 1.0 0.1
11458 3 73 17.536062 2077.7422 0.045894083 1.0 0.1
11460 3 74 17.536062 2076.9373 0.045894083 1.0 0.1
11888 3 75 17.536062 2076.1326 0.045894083 1.0 0.1
11890 3 76 17.536062 2075.3276 0.045894083 1.0 0.1
11896 3 77 17.536062 2074.523 0.045894083 1.0 0.1
11898 3 78 17.536062 2073.718 0.045894083 1.0 0.1
12401 3 79 17.536062 2072.9133 0.045894083 1.0 0.1
12403 3 80 17.536062 2072.1086 0.045894083 1.0 0.1
12409 3 81 17.536062 2071.3037 0.045894083 1.0 0.1
12411 3 82 17.536062 2070.499 0.045894083 1.0 0.1
12926 3 83 17.536062 2069.694 0.045894083 1.0 0.1
12928 3 84 17.536062 2068.8894 0.045894083 1.0 0.1
12934 3 85 17.536062 2068.0845 0.045894083 1.0 0.1
12936 3 86 17.536062 2067.2798 0.045894083 1.0 0.1
13474 3 87 17.536062 2066.4749 0.045894083 1.0 0.1
13476 3 88 17.538969 2065.67 0.045894083 1.0 0.1
13479 3 89 24.799738 2064.5317 0.045894083 1.0 0.1
13480 3 90 24.799738 2063.3936 0.045894083 1.0 0.1
13962 3 91 24.799738 2062.2556 0.045894083 1.0 0.1
13963 3 92 24.796833 2061.1174 0.045894083 1.0 0.1
13969 3 93 17.536062 2060.3127 0.045894083 1.0 0.1
13971 3 94 17.536062 2059.5078 0.045894083 1.0 0.1
14425 3 95 17.536062 2058.7031 0.045894083 1.0 0.1
14427 3 96 17.538969 2057.8982 0.045894083 1.0 0.1
14430 3 97 24.799738 2056.76 0.045894083 1.0 0.1
14431 3 98 24.799738 2055.6218 0.045894083 1.0 0.1
14906 3 99 24.799738 2054.4836 0.045894083 1.0 0.1
14907 3 100 24.796833 2053.3457 0.045894083 1.0 0.1
14913 3 101 17.536062 2052.5408 0.045894083 1.0 0.1
14915 3 102 17.536062 2051.736 0.045894083 1.0 0.1
15480 3 103 17.536062 2050.9312 0.045894083 1.0 0.1
15482 3 104 17.536062 2050.1265 0.045894083 1.0 0.1
15488 3 105 17.536062 2049.3215 0.045894083 1.0 0.1
15490 3 106 17.536062 2048.5168 0.045894083 1.0 0.1
16127 3 107 17.536062 2047.712 0.045894083 1.0 0.1
16129 3 108 17.536062 2046.9072 0.045894083 1.0 0.1
16135 3 109 17.536062 2046.1024 0.045894083 1.0 0.1
16137 3 110 17.536062 2045.2976 0.045894083 1.0 0.1
16794 3 111 17.536062 2044.4928 0.045894083 1.0 0.1
16796 3 112 17.538969 2043.6879 0.045894083 1.0 0.1
16802 3 113 24.779898 2042.5507 0.045894083 1.0 0.1
16805 3 114 24.779898 2041.4133 0.045894083 1.0 0.1
17546 3 115 24.779898 2040.2761 0.045894083 1.0 0.1
17549 3 116 24.779898 2039.1389 0.045894083 1.0 0.1
17558 3 117 17.536062 2038.3341 0.045894083 1.0 0.1
17560 3 118 17.536062 2037.5293 0.045894083 1.0 0.1
18348 3 119 17.536062 2036.7245 0.045894083 1.0 0.1
18350 3 120 17.538969 2035.9196 0.045894083 1.0 0.1
18356 3 121 24.779898 2034.7822 0.045894083 1.0 0.1
18359 3 122 24.779898 2033.645 0.045894083 1.0 0.1
19215 3 123 24.779898 2032.5078 0.045894083 1.0 0.1
19218 3 124 24.779898 2031.3705 0.045894083 1.0 0.1
19227 3 125 17.536062 2030.5657 0.045894083 1.0 0.1
19229 3 126 17.536062 2029.7609 0.045894083 1.0 0.1
20014 3 127 17.536062 2028.956 0.045894083 1.0 0.1
20016 3 128 17.536062 2028.1514 0.045894083 1.0 0.1
20022 3 129 17.536062 2027.3466 0.045894083 1.0 0.1
20024 3 130 17.536062 2026.5417 0.045894083 1.0 0.1
20753 3 131 17.536062 2025.7369 0.045894083 1.0 0.1
20755 3 132 17.538969 2024.932 0.045894083 1.0 0.1
20761 3 133 24.779898 2023.7947 0.045894083 1.0 0.1
20764 3 134 24.779898 2022.6575 0.045894083 1.0 0.1
21398 3 135 24.779898 2021.5203 0.045894083 1.0 0.1
21401 3 136 24.779898 2020.3829 0.045894083 1.0 0.1
21410 3 137 17.536062 2019.5781 0.045894083 1.0 0.1
21412 3 138 17.536062 2018.7733 0.045894083 1.0 0.1
21990 3 139 17.536062 2017.9685 0.045894083 1.0 0.1
21992 3 140 17.538969 2017.1636 0.045894083 1.0 0.1
21998 3 141 24.779898 2016.0264 0.045894083 1.0 0.1
22001 3 142 24.779898 2014.8892 0.045894083 1.0 0.1
22531 3 143 24.779898 2013.7518 0.045894083 1.0 0.1
22534 3 144 24.779898 2012.6146 0.045894083 1.0 0.1
5280 4 1 25.255276 2388.4067 0.07974401 1.0 0.1
5283 4 2 25.255276 2386.3928 0.07974401 1.0 0.1
5679 4 3 25.255276 2384.3787 0.07974401 1.0 0.1
5682 4 4 25.255276 2382.3647 0.07974401 1.0 0.1
5691 4 5 25.255276 2380.3508 0.07974401 1.0 0.1
5694 4 6 25.255276 2378.337 0.07974401 1.0 0.1
6054 4 7 25.255276 2376.323 0.07974401 1.0 0.1
6057 4 8 25.255276 2374.309 0.07974401 1.0 0.1
6066 4 9 17.872475 2372.8838 0.07974401 1.0 0.1
6068 4 10 17.872475 2371.4585 0.07974401 1.0 0.1
6405 4 11 17.872475 2370.0334 0.07974401 1.0 0.1
6407 4 12 17.872475 2368.6082 0.07974401 1.0 0.1
6413 4 13 17.872475 2367.1829 0.07974401 1.0 0.1
6415 4 14 17.872475 2365.7576 0.07974401 1.0 0.1
6812 4 15 17.872475 2364.3325 0.07974401 1.0 0.1
6814 4 16 17.875435 2362.907 0.07974401 1.0 0.1
6820 4 17 25.255276 2360.893 0.07974401 1.0 0.1
6823 4 18 25.255276 2358.8792 0.07974401 1.0 0.1
7257 4 19 25.255276 2356.865 0.07974401 1.0 0.1
7260 4 20 25.255276 2354.851 0.07974401 1.0 0.1
7269 4 21 25.255276 2352.8372 0.07974401 1.0 0.1
7272 4 22 25.255276 2350.8232 0.07974401 1.0 0.1
7715 4 23 25.255276 2348.8093 0.07974401 1.0 0.1
7718 4 24 25.255276 2346.7954 0.07974401 1.0 0.1
7727 4 25 25.255276 2344.7812 0.07974401 1.0 0.1
7730 4 26 25.255276 2342.7673 0.07974401 1.0 0.1
8212 4 27 25.255276 2340.7534 0.07974401 1.0 0.1
8215 4 28 25.255276 2338.7395 0.07974401 1.0 0.1
8218 4 29 17.875435 2337.314 0.07974401 1.0 0.1
8219 4 30 17.872475 2335.889 0.07974401 1.0 0.1
8230 4 31 17.872475 2334.4636 0.07974401 1.0 0.1
8231 4 32 17.872475 2333.0383 0.07974401 1.0 0.1
8234 4 33 17.872475 2331.613 0.07974401 1.0 0.1
8235 4 34 17.872475 2330.188 0.07974401 1.0 0.1
8246 4 35 17.872475 2328.7627 0.07974401 1.0 0.1
8247 4 36 17.872475 2327.3374 0.07974401 1.0 0.1
8256 4 37 25.255276 2325.3235 0.07974401 1.0 0.1
8259 4 38 25.255276 2323.3096 0.07974401 1.0 0.1
8780 4 39 25.255276 2321.2957 0.07974401 1.0 0.1
8783 4 40 25.255276 2319.2817 0.07974401 1.0 0.1
8786 4 41 17.875435 2317.8562 0.07974401 1.0 0.1
8787 4 42 17.872475 2316.431 0.07974401 1.0 0.1
8798 4 43 17.872475 2315.0059 0.07974401 1.0 0.1
8799 4 44 17.872475 2313.5806 0.07974401 1.0 0.1
8808 4 45 25.255276 2311.5667 0.07974401 1.0 0.1
8811 4 46 25.255276 2309.5525 0.07974401 1.0 0.1
9359 4 47 25.255276 2307.5386 0.07974401 1.0 0.1
9362 4 48 25.255276 2305.5247 0.07974401 1.0 0.1
9365 4 49 17.875435 2304.099 0.07974401 1.0 0.1
9366 4 50 17.872475 2302.674 0.07974401 1.0 0.1
9377 4 51 17.872475 2301.2488 0.07974401 1.0 0.1
9378 4 52 17.872475 2299.8235 0.07974401 1.0 0.1
9381 4 53 17.872475 2298.3984 0.07974401 1.0 0.1
9382 4 54 17.872475 2296.9731 0.07974401 1.0 0.1
9393 4 55 17.872475 2295.5479 0.07974401 1.0 0.1
9394 4 56 17.872475 2294.1226 0.07974401 1.0 0.1
9397 4 57 17.872475 2292.6975 0.07974401 1.0 0.1
9398 4 58 17.872475 2291.2722 0.07974401 1.0 0.1
9409 4 59 17.872475 2289.847 0.07974401 1.0 0.1
9410 4 60 17.872475 2288.4219 0.07974401 1.0 0.1
9413 4 61 17.872475 2286.9966 0.07974401 1.0 0.1
9414 4 62 17.872475 2285.5713 0.07974401 1.0 0.1
9425 4 63 17.872475 2284.146 0.07974401 1.0 0.1
9426 4 64 17.872475 2282.721 0.07974401 1.0 0.1
9429 4 65 17.872475 2281.2957 0.07974401 1.0 0.1
9430 4 66 17.872475 2279.8704 0.07974401 1.0 0.1
9441 4 67 17.872475 2278.4453 0.07974401 1.0 0.1
9442 4 68 17.872475 2277.02 0.07974401 1.0 0.1
9451 4 69 25.255276 2275.006 0.07974401 1.0 0.1
9454 4 70 25.255276 2272.9922 0.07974401 1.0 0.1
9960 4 71 25.255276 2270.978 0.07974401 1.0 0.1
9963 4 72 25.255276 2268.964 0.07974401 1.0 0.1
9966 4 73 17.875435 2267.5388 0.07974401 1.0 0.1
9967 4 74 17.872475 2266.1135 0.07974401 1.0 0.1
9978 4 75 17.872475 2264.6882 0.07974401 1.0 0.1
9979 4 76 17.872475 2263.263 0.07974401 1.0 0.1
9988 4 77 25.255276 2261.249 0.07974401 1.0 0.1
9991 4 78 25.255276 2259.235 0.07974401 1.0 0.1
10430 4 79 25.255276 2257.2212 0.07974401 1.0 0.1
10433 4 80 25.255276 2255.2073 0.07974401 1.0 0.1
10442 4 81 25.255276 2253.1934 0.07974401 1.0 0.1
10445 4 82 25.255276 2251.1792 0.07974401 1.0 0.1
10844 4 83 25.255276 2249.1653 0.07974401 1.0 0.1
10847 4 84 25.255276 2247.1514 0.07974401 1.0 0.1
10856 4 85 25.255276 2245.1375 0.07974401 1.0 0.1
10859 4 86 25.255276 2243.1235 0.07974401 1.0 0.1
11278 4 87 25.255276 2241.1096 0.07974401 1.0 0.1
11281 4 88 25.255276 2239.0955 0.07974401 1.0 0.1
11290 4 89 25.255276 2237.0815 0.07974401 1.0 0.1
11293 4 90 25.255276 2235.0676 0.07974401 1.0 0.1
11711 4 91 25.255276 2233.0537 0.07974401 1.0 0.1
11714 4 92 25.255276 2231.0398 0.07974401 1.0 0.1
11723 4 93 25.255276 2229.026 0.07974401 1.0 0.1
11726 4 94 25.255276 2227.0117 0.07974401 1.0 0.1
12150 4 95 25.255276 2224.9978 0.07974401 1.0 0.1
12153 4 96 25.255276 2222.984 0.07974401 1.0 0.1
12162 4 97 25.255276 2220.97 0.07974401 1.0 0.1
12165 4 98 25.255276 2218.956 0.07974401 1.0 0.1
12664 4 99 25.255276 2216.9421 0.07974401 1.0 0.1
12667 4 100 25.255276 2214.928 0.07974401 1.0 0.1
12670 4 101 17.875435 2213.5027 0.07974401 1.0 0.1
12671 4 102 17.872475 2212.0774 0.07974401 1.0 0.1
12682 4 103 17.872475 2210.652 0.07974401 1.0 0.1
12683 4 104 17.872475 2209.227 0.07974401 1.0 0.1
12686 4 105 17.872475 2207.8018 0.07974401 1.0 0.1
12687 4 106 17.872475 2206.3765 0.07974401 1.0 0.1
12698 4 107 17.872475 2204.9512 0.07974401 1.0 0.1
12699 4 108 17.872475 2203.5261 0.07974401 1.0 0.1
12702 4 109 17.872475 2202.1008 0.07974401 1.0 0.1
12703 4 110 17.872475 2200.6755 0.07974401 1.0 0.1
12714 4 111 17.872475 2199.2505 0.07974401 1.0 0.1
12715 4 112 17.872475 2197.8252 0.07974401 1.0 0.1
12718 4 113 17.872475 2196.4 0.07974401 1.0 0.1
12719 4 114 17.872475 2194.9746 0.07974401 1.0 0.1
12730 4 115 17.872475 2193.5496 0.07974401 1.0 0.1
12731 4 116 17.872475 2192.1243 0.07974401 1.0 0.1
12734 4 117 17.872475 2190.699 0.07974401 1.0 0.1
12735 4 118 17.872475 2189.274 0.07974401 1.0 0.1
12746 4 119 17.872475 2187.8486 0.07974401 1.0 0.1
12747 4 120 17.872475 2186.4233 0.07974401 1.0 0.1
12750 4 121 17.872475 2184.998 0.07974401 1.0 0.1
12751 4 122 17.872475 2183.573 0.07974401 1.0 0.1
12762 4 123 17.872475 2182.1477 0.07974401 1.0 0.1
12763 4 124 17.872475 2180.7224 0.07974401 1.0 0.1
12772 4 125 25.255276 2178.7085 0.07974401 1.0 0.1
12775 4 126 25.255276 2176.6946 0.07974401 1.0 0.1
13285 4 127 25.255276 2174.6807 0.07974401 1.0 0.1
13288 4 128 25.255276 2172.6667 0.07974401 1.0 0.1
13291 4 129 17.875435 2171.2412 0.07974401 1.0 0.1
13292 4 130 17.872475 2169.816 0.07974401 1.0 0.1
13303 4 131 17.872475 2168.3909 0.07974401 1.0 0.1
13304 4 132 17.872475 2166.9656 0.07974401 1.0 0.1
13313 4 133 25.255276 2164.9517 0.07974401 1.0 0.1
13316 4 134 25.255276 2162.9377 0.07974401 1.0 0.1
13802 4 135 25.255276 2160.9236 0.07974401 1.0 0.1
13805 4 136 25.255276 2158.9097 0.07974401 1.0 0.1
13814 4 137 25.255276 2156.8958 0.07974401 1.0 0.1
13817 4 138 25.255276 2154.8818 0.07974401 1.0 0.1
14267 4 139 25.255276 2152.868 0.07974401 1.0 0.1
14270 4 140 25.255276 2150.854 0.07974401 1.0 0.1
14279 4 141 25.255276 2148.8398 0.07974401 1.0 0.1
14282 4 142 25.255276 2146.826 0.07974401 1.0 0.1
14749 4 143 25.255276 2144.812 0.07974401 1.0 0.1
14752 4 144 25.255276 2142.798 0.07974401 1.0 0.1
14761 4 145 25.255276 2140.7842 0.07974401 1.0 0.1
14764 4 146 25.255276 2138.7703 0.07974401 1.0 0.1
15325 4 147 25.255276 2136.756 0.07974401 1.0 0.1
15328 4 148 25.255276 2134.7422 0.07974401 1.0 0.1
15337 4 149 25.255276 2132.7283 0.07974401 1.0 0.1
15340 4 150 25.255276 2130.7144 0.07974401 1.0 0.1
15997 4 151 25.255276 2128.7004 0.07974401 1.0 0.1
16000 4 152 25.255276 2126.6865 0.07974401 1.0 0.1
16009 4 153 17.872475 2125.2612 0.07974401 1.0 0.1
16011 4 154 17.872475 2123.836 0.07974401 1.0 0.1
16656 4 155 17.872475 2122.4106 0.07974401 1.0 0.1
16658 4 156 17.875435 2120.9854 0.07974401 1.0 0.1
16664 4 157 25.255276 2118.9714 0.07974401 1.0 0.1
16667 4 158 25.255276 2116.9573 0.07974401 1.0 0.1
17396 4 159 25.255276 2114.9434 0.07974401 1.0 0.1
17399 4 160 25.255276 2112.9294 0.07974401 1.0 0.1
17408 4 161 25.255276 2110.9155 0.07974401 1.0 0.1
17411 4 162 25.255276 2108.9016 0.07974401 1.0 0.1
18195 4 163 25.255276 2106.8877 0.07974401 1.0 0.1
18198 4 164 25.255276 2104.8735 0.07974401 1.0 0.1
18207 4 165 25.255276 2102.8596 0.07974401 1.0 0.1
18210 4 166 25.255276 2100.8457 0.07974401 1.0 0.1
19051 4 167 25.255276 2098.8318 0.07974401 1.0 0.1
19054 4 168 25.255276 2096.8179 0.07974401 1.0 0.1
19063 4 169 25.255276 2094.804 0.07974401 1.0 0.1