# LPF package for MODFLOW-USG generated by Flopy 3.10.0.dev3
         0    -1E+30         0         0  
         1
         4
   1.000000E+00
         0
         0
CONSTANT    1.000000E+01                           #hk layer 1                    
CONSTANT    1.000000E+00                           #vka1                          
